*Heading
** Job name: Disk-Universal-Static Model name: Disk-Universal
** Generated by: Abaqus/CAE 2023.HF1
*Preprint, echo=NO, model=NO, history=NO, contact=NO
**
** PARTS
**
*Part, name=Disk-Universal
*Node
      1, 0.00179999997,           0.
      2, 0.00179999997, 0.00100000005
      3,           0., 0.00100000005
      4,           0.,           0.
      5, 0.00359999994,           0.
      6, 0.00359999994, 0.00100000005
      7, 0.00540000014,           0.
      8, 0.00540000014, 0.00100000005
      9, 0.00719999988,           0.
     10, 0.00719999988, 0.00100000005
     11, 0.00899999961,           0.
     12, 0.00899999961, 0.00100000005
     13, 0.0108000003,           0.
     14, 0.0108000003, 0.00100000005
     15,       0.0126,           0.
     16,       0.0126, 0.00100000005
     17, 0.0143999998,           0.
     18, 0.0143999998, 0.00100000005
     19, 0.0162000004,           0.
     20, 0.0162000004, 0.00100000005
** ... 1201 like lines cut
*Element, type=CAX4RT
 1,   1, 203, 916, 216
 2, 203,   2, 204, 916
 3, 216, 916, 917, 215
 4, 916, 204, 205, 917
 5, 215, 917, 918, 214
 6, 917, 205, 206, 918
 7, 214, 918, 919, 213
 8, 918, 206, 207, 919
 9, 213, 919, 920, 212
10, 919, 207, 208, 920
11, 212, 920, 921, 211
12, 920, 208, 209, 921
13, 211, 921, 210,   4
14, 921, 209,   3, 210
15,   5, 217, 922, 223
16, 217,   6, 218, 922
17, 223, 922, 923, 222
18, 922, 218, 219, 923
19, 222, 923, 924, 221
20, 923, 219, 220, 924
** ... 792 like lines cut
*Nset, nset=Left
   3,   4, 210
*Elset, elset=Left
 13, 14
*Nset, nset=Right
 199, 200, 896
*Elset, elset=Right
 795, 796
*Nset, nset=Bottom
   1,   4,   5,   7,   9,  11,  13,  15,  17,  19,  21,  23,  25,  27,  29,  31
  33,  35,  37,  39,  41,  43,  45,  47,  49,  51,  53,  55,  57,  59,  61,  63
  65,  67,  69,  71,  73,  75,  77,  79,  81,  83,  85,  87,  89,  91,  93,  95
  97,  99, 101, 103, 105, 107, 109, 111, 113, 115, 117, 119, 121, 123, 125, 127
 129, 131, 133, 135, 137, 139, 141, 143, 145, 147, 149, 151, 153, 155, 157, 159
 161, 163, 165, 167, 169, 171, 173, 175, 177, 179, 181, 183, 185, 187, 189, 191
 193, 195, 198, 199, 201, 211, 212, 213, 214, 215, 216, 221, 222, 223, 224, 225
 226, 235, 236, 237, 238, 239, 240, 249, 250, 251, 252, 253, 254, 263, 264, 265
 266, 267, 268, 277, 278, 279, 280, 281, 282, 291, 292, 293, 294, 295, 296, 305
 306, 307, 308, 309, 310, 319, 320, 321, 322, 323, 324, 333, 334, 335, 336, 337
 338, 347, 348, 349, 350, 351, 352, 361, 362, 363, 364, 365, 366, 375, 376, 377
 378, 379, 380, 389, 390, 391, 392, 393, 394, 403, 404, 405, 406, 407, 408, 417
 418, 419, 420, 421, 422, 431, 432, 433, 434, 435, 436, 445, 446, 447, 448, 449
 450, 459, 460, 461, 462, 463, 464, 473, 474, 475, 476, 477, 478, 487, 488, 489
 490, 491, 492, 501, 502, 503, 504, 505, 506, 515, 516, 517, 518, 519, 520, 529
 530, 531, 532, 533, 534, 543, 544, 545, 546, 547, 548, 557, 558, 559, 560, 561
 562, 571, 572, 573, 574, 575, 576, 585, 586, 587, 588, 589, 590, 599, 600, 601
 602, 603, 604, 613, 614, 615, 616, 617, 618, 627, 628, 629, 630, 631, 632, 641
 642, 643, 644, 645, 646, 655, 656, 657, 658, 659, 660, 669, 670, 671, 672, 673
 674, 683, 684, 685, 686, 687, 688, 697, 698, 699, 700, 701, 702, 711, 712, 713
** ... 6 like lines cut
*Elset, elset=Bottom
   1,   3,   5,   7,   9,  11,  13,  15,  17,  19,  21,  24,  26,  28,  30,  31
  33,  35,  37,  40,  42,  44,  46,  47,  49,  51,  53,  56,  58,  60,  62,  63
  65,  67,  69,  72,  74,  76,  78,  79,  81,  83,  85,  88,  90,  92,  94,  95
  97,  99, 101, 104, 106, 108, 110, 111, 113, 115, 117, 120, 122, 124, 126, 127
 129, 131, 133, 136, 138, 140, 142, 143, 145, 147, 149, 152, 154, 156, 158, 159
 161, 163, 165, 168, 170, 172, 174, 175, 177, 179, 181, 184, 186, 188, 190, 191
 193, 195, 197, 200, 202, 204, 206, 207, 209, 211, 213, 216, 218, 220, 222, 223
 225, 227, 229, 232, 234, 236, 238, 239, 241, 243, 245, 248, 250, 252, 254, 255
 257, 259, 261, 264, 266, 268, 270, 271, 273, 275, 277, 280, 282, 284, 286, 287
 289, 291, 293, 296, 298, 300, 302, 303, 305, 307, 309, 312, 314, 316, 318, 319
 321, 323, 325, 328, 330, 332, 334, 335, 337, 339, 341, 344, 346, 348, 350, 351
 353, 355, 357, 360, 362, 364, 366, 367, 369, 371, 373, 376, 378, 380, 382, 383
 385, 387, 389, 392, 394, 396, 398, 399, 401, 403, 405, 408, 410, 412, 414, 415
 417, 419, 421, 424, 426, 428, 430, 431, 433, 435, 437, 440, 442, 444, 446, 447
 449, 451, 453, 456, 458, 460, 462, 463, 465, 467, 469, 472, 474, 476, 478, 479
 481, 483, 485, 488, 490, 492, 494, 495, 497, 499, 501, 504, 506, 508, 510, 511
 513, 515, 517, 520, 522, 524, 526, 527, 529, 531, 533, 536, 538, 540, 542, 543
 545, 547, 549, 552, 554, 556, 558, 559, 561, 563, 565, 568, 570, 572, 574, 575
 577, 579, 581, 584, 586, 588, 590, 591, 593, 595, 597, 600, 602, 604, 606, 607
 609, 611, 613, 616, 618, 620, 622, 623, 625, 627, 629, 632, 634, 636, 638, 639
** ... 6 like lines cut
*Nset, nset=All, generate
    1,  1221,     1
*Elset, elset=All, generate
   1,  812,    1
*Nset, nset=Sec1
   1,   2,   3,   4, 203, 204, 205, 206, 207, 208, 209, 210, 211, 212, 213, 214
 215, 216, 916, 917, 918, 919, 920, 921
*Elset, elset=Sec1, generate
  1,  14,   1
*Nset, nset=Sec2
   1,   2,   5,   6, 203, 217, 218, 219, 220, 221, 222, 223, 922, 923, 924
*Elset, elset=Sec2, generate
 15,  22,   1
*Nset, nset=Sec3
   5,   6,   7,   8, 217, 224, 225, 226, 227, 228, 229, 230, 925, 926, 927
*Elset, elset=Sec3, generate
 23,  30,   1
*Nset, nset=Sec4
   7,   8,   9,  10, 227, 231, 232, 233, 234, 235, 236, 237, 928, 929, 930
*Elset, elset=Sec4, generate
 31,  38,   1
*Nset, nset=Sec5
   9,  10,  11,  12, 231, 238, 239, 240, 241, 242, 243, 244, 931, 932, 933
*Elset, elset=Sec5, generate
 39,  46,   1
*Nset, nset=Sec6
  11,  12,  13,  14, 241, 245, 246, 247, 248, 249, 250, 251, 934, 935, 936
*Elset, elset=Sec6, generate
 47,  54,   1
*Nset, nset=Sec7
  13,  14,  15,  16, 245, 252, 253, 254, 255, 256, 257, 258, 937, 938, 939
*Elset, elset=Sec7, generate
 55,  62,   1
*Nset, nset=Sec8
  15,  16,  17,  18, 255, 259, 260, 261, 262, 263, 264, 265, 940, 941, 942
*Elset, elset=Sec8, generate
 63,  70,   1
*Nset, nset=Sec9
  17,  18,  19,  20, 259, 266, 267, 268, 269, 270, 271, 272, 943, 944, 945
*Elset, elset=Sec9, generate
 71,  78,   1
*Nset, nset=Sec10
  19,  20,  21,  22, 269, 273, 274, 275, 276, 277, 278, 279, 946, 947, 948
*Elset, elset=Sec10, generate
 79,  86,   1
*Nset, nset=Sec11
  21,  22,  23,  24, 273, 280, 281, 282, 283, 284, 285, 286, 949, 950, 951
*Elset, elset=Sec11, generate
 87,  94,   1
*Nset, nset=Sec12
  23,  24,  25,  26, 283, 287, 288, 289, 290, 291, 292, 293, 952, 953, 954
*Elset, elset=Sec12, generate
  95,  102,    1
*Nset, nset=Sec13
  25,  26,  27,  28, 287, 294, 295, 296, 297, 298, 299, 300, 955, 956, 957
*Elset, elset=Sec13, generate
 103,  110,    1
*Nset, nset=Sec14
  27,  28,  29,  30, 297, 301, 302, 303, 304, 305, 306, 307, 958, 959, 960
*Elset, elset=Sec14, generate
 111,  118,    1
*Nset, nset=Sec15
  29,  30,  31,  32, 301, 308, 309, 310, 311, 312, 313, 314, 961, 962, 963
*Elset, elset=Sec15, generate
 119,  126,    1
*Nset, nset=Sec16
  31,  32,  33,  34, 311, 315, 316, 317, 318, 319, 320, 321, 964, 965, 966
*Elset, elset=Sec16, generate
 127,  134,    1
*Nset, nset=Sec17
  33,  34,  35,  36, 315, 322, 323, 324, 325, 326, 327, 328, 967, 968, 969
*Elset, elset=Sec17, generate
 135,  142,    1
*Nset, nset=Sec18
  35,  36,  37,  38, 325, 329, 330, 331, 332, 333, 334, 335, 970, 971, 972
*Elset, elset=Sec18, generate
 143,  150,    1
*Nset, nset=Sec19
  37,  38,  39,  40, 329, 336, 337, 338, 339, 340, 341, 342, 973, 974, 975
*Elset, elset=Sec19, generate
 151,  158,    1
*Nset, nset=Sec20
  39,  40,  41,  42, 339, 343, 344, 345, 346, 347, 348, 349, 976, 977, 978
*Elset, elset=Sec20, generate
 159,  166,    1
*Nset, nset=Sec21
  41,  42,  43,  44, 343, 350, 351, 352, 353, 354, 355, 356, 979, 980, 981
*Elset, elset=Sec21, generate
 167,  174,    1
*Nset, nset=Sec22
  43,  44,  45,  46, 353, 357, 358, 359, 360, 361, 362, 363, 982, 983, 984
*Elset, elset=Sec22, generate
 175,  182,    1
*Nset, nset=Sec23
  45,  46,  47,  48, 357, 364, 365, 366, 367, 368, 369, 370, 985, 986, 987
*Elset, elset=Sec23, generate
 183,  190,    1
*Nset, nset=Sec24
  47,  48,  49,  50, 367, 371, 372, 373, 374, 375, 376, 377, 988, 989, 990
*Elset, elset=Sec24, generate
 191,  198,    1
*Nset, nset=Sec25
  49,  50,  51,  52, 371, 378, 379, 380, 381, 382, 383, 384, 991, 992, 993
*Elset, elset=Sec25, generate
 199,  206,    1
*Nset, nset=Sec26
  51,  52,  53,  54, 381, 385, 386, 387, 388, 389, 390, 391, 994, 995, 996
*Elset, elset=Sec26, generate
 207,  214,    1
*Nset, nset=Sec27
  53,  54,  55,  56, 385, 392, 393, 394, 395, 396, 397, 398, 997, 998, 999
*Elset, elset=Sec27, generate
 215,  222,    1
*Nset, nset=Sec28
   55,   56,   57,   58,  395,  399,  400,  401,  402,  403,  404,  405, 1000, 1001, 1002
*Elset, elset=Sec28, generate
 223,  230,    1
*Nset, nset=Sec29
   57,   58,   59,   60,  399,  406,  407,  408,  409,  410,  411,  412, 1003, 1004, 1005
*Elset, elset=Sec29, generate
 231,  238,    1
*Nset, nset=Sec30
   59,   60,   61,   62,  409,  413,  414,  415,  416,  417,  418,  419, 1006, 1007, 1008
*Elset, elset=Sec30, generate
 239,  246,    1
*Nset, nset=Sec31
   61,   62,   63,   64,  413,  420,  421,  422,  423,  424,  425,  426, 1009, 1010, 1011
*Elset, elset=Sec31, generate
 247,  254,    1
*Nset, nset=Sec32
   63,   64,   65,   66,  423,  427,  428,  429,  430,  431,  432,  433, 1012, 1013, 1014
*Elset, elset=Sec32, generate
 255,  262,    1
*Nset, nset=Sec33
   65,   66,   67,   68,  427,  434,  435,  436,  437,  438,  439,  440, 1015, 1016, 1017
*Elset, elset=Sec33, generate
 263,  270,    1
*Nset, nset=Sec34
   67,   68,   69,   70,  437,  441,  442,  443,  444,  445,  446,  447, 1018, 1019, 1020
*Elset, elset=Sec34, generate
 271,  278,    1
*Nset, nset=Sec35
   69,   70,   71,   72,  441,  448,  449,  450,  451,  452,  453,  454, 1021, 1022, 1023
*Elset, elset=Sec35, generate
 279,  286,    1
*Nset, nset=Sec36
   71,   72,   73,   74,  451,  455,  456,  457,  458,  459,  460,  461, 1024, 1025, 1026
*Elset, elset=Sec36, generate
 287,  294,    1
*Nset, nset=Sec37
   73,   74,   75,   76,  455,  462,  463,  464,  465,  466,  467,  468, 1027, 1028, 1029
*Elset, elset=Sec37, generate
 295,  302,    1
*Nset, nset=Sec38
   75,   76,   77,   78,  465,  469,  470,  471,  472,  473,  474,  475, 1030, 1031, 1032
*Elset, elset=Sec38, generate
 303,  310,    1
*Nset, nset=Sec39
   77,   78,   79,   80,  469,  476,  477,  478,  479,  480,  481,  482, 1033, 1034, 1035
*Elset, elset=Sec39, generate
 311,  318,    1
*Nset, nset=Sec40
   79,   80,   81,   82,  479,  483,  484,  485,  486,  487,  488,  489, 1036, 1037, 1038
*Elset, elset=Sec40, generate
 319,  326,    1
*Nset, nset=Sec41
   81,   82,   83,   84,  483,  490,  491,  492,  493,  494,  495,  496, 1039, 1040, 1041
*Elset, elset=Sec41, generate
 327,  334,    1
*Nset, nset=Sec42
   83,   84,   85,   86,  493,  497,  498,  499,  500,  501,  502,  503, 1042, 1043, 1044
*Elset, elset=Sec42, generate
 335,  342,    1
*Nset, nset=Sec43
   85,   86,   87,   88,  497,  504,  505,  506,  507,  508,  509,  510, 1045, 1046, 1047
*Elset, elset=Sec43, generate
 343,  350,    1
*Nset, nset=Sec44
   87,   88,   89,   90,  507,  511,  512,  513,  514,  515,  516,  517, 1048, 1049, 1050
*Elset, elset=Sec44, generate
 351,  358,    1
*Nset, nset=Sec45
   89,   90,   91,   92,  511,  518,  519,  520,  521,  522,  523,  524, 1051, 1052, 1053
*Elset, elset=Sec45, generate
 359,  366,    1
*Nset, nset=Sec46
   91,   92,   93,   94,  521,  525,  526,  527,  528,  529,  530,  531, 1054, 1055, 1056
*Elset, elset=Sec46, generate
 367,  374,    1
*Nset, nset=Sec47
   93,   94,   95,   96,  525,  532,  533,  534,  535,  536,  537,  538, 1057, 1058, 1059
*Elset, elset=Sec47, generate
 375,  382,    1
*Nset, nset=Sec48
   95,   96,   97,   98,  535,  539,  540,  541,  542,  543,  544,  545, 1060, 1061, 1062
*Elset, elset=Sec48, generate
 383,  390,    1
*Nset, nset=Sec49
   97,   98,   99,  100,  539,  546,  547,  548,  549,  550,  551,  552, 1063, 1064, 1065
*Elset, elset=Sec49, generate
 391,  398,    1
*Nset, nset=Sec50
   99,  100,  101,  102,  549,  553,  554,  555,  556,  557,  558,  559, 1066, 1067, 1068
*Elset, elset=Sec50, generate
 399,  406,    1
*Nset, nset=Sec51
  101,  102,  103,  104,  553,  560,  561,  562,  563,  564,  565,  566, 1069, 1070, 1071
*Elset, elset=Sec51, generate
 407,  414,    1
*Nset, nset=Sec52
  103,  104,  105,  106,  563,  567,  568,  569,  570,  571,  572,  573, 1072, 1073, 1074
*Elset, elset=Sec52, generate
 415,  422,    1
*Nset, nset=Sec53
  105,  106,  107,  108,  567,  574,  575,  576,  577,  578,  579,  580, 1075, 1076, 1077
*Elset, elset=Sec53, generate
 423,  430,    1
*Nset, nset=Sec54
  107,  108,  109,  110,  577,  581,  582,  583,  584,  585,  586,  587, 1078, 1079, 1080
*Elset, elset=Sec54, generate
 431,  438,    1
*Nset, nset=Sec55
  109,  110,  111,  112,  581,  588,  589,  590,  591,  592,  593,  594, 1081, 1082, 1083
*Elset, elset=Sec55, generate
 439,  446,    1
*Nset, nset=Sec56
  111,  112,  113,  114,  591,  595,  596,  597,  598,  599,  600,  601, 1084, 1085, 1086
*Elset, elset=Sec56, generate
 447,  454,    1
*Nset, nset=Sec57
  113,  114,  115,  116,  595,  602,  603,  604,  605,  606,  607,  608, 1087, 1088, 1089
*Elset, elset=Sec57, generate
 455,  462,    1
*Nset, nset=Sec58
  115,  116,  117,  118,  605,  609,  610,  611,  612,  613,  614,  615, 1090, 1091, 1092
*Elset, elset=Sec58, generate
 463,  470,    1
*Nset, nset=Sec59
  117,  118,  119,  120,  609,  616,  617,  618,  619,  620,  621,  622, 1093, 1094, 1095
*Elset, elset=Sec59, generate
 471,  478,    1
*Nset, nset=Sec60
  119,  120,  121,  122,  619,  623,  624,  625,  626,  627,  628,  629, 1096, 1097, 1098
*Elset, elset=Sec60, generate
 479,  486,    1
*Nset, nset=Sec61
  121,  122,  123,  124,  623,  630,  631,  632,  633,  634,  635,  636, 1099, 1100, 1101
*Elset, elset=Sec61, generate
 487,  494,    1
*Nset, nset=Sec62
  123,  124,  125,  126,  633,  637,  638,  639,  640,  641,  642,  643, 1102, 1103, 1104
*Elset, elset=Sec62, generate
 495,  502,    1
*Nset, nset=Sec63
  125,  126,  127,  128,  637,  644,  645,  646,  647,  648,  649,  650, 1105, 1106, 1107
*Elset, elset=Sec63, generate
 503,  510,    1
*Nset, nset=Sec64
  127,  128,  129,  130,  647,  651,  652,  653,  654,  655,  656,  657, 1108, 1109, 1110
*Elset, elset=Sec64, generate
 511,  518,    1
*Nset, nset=Sec65
  129,  130,  131,  132,  651,  658,  659,  660,  661,  662,  663,  664, 1111, 1112, 1113
*Elset, elset=Sec65, generate
 519,  526,    1
*Nset, nset=Sec66
  131,  132,  133,  134,  661,  665,  666,  667,  668,  669,  670,  671, 1114, 1115, 1116
*Elset, elset=Sec66, generate
 527,  534,    1
*Nset, nset=Sec67
  133,  134,  135,  136,  665,  672,  673,  674,  675,  676,  677,  678, 1117, 1118, 1119
*Elset, elset=Sec67, generate
 535,  542,    1
*Nset, nset=Sec68
  135,  136,  137,  138,  675,  679,  680,  681,  682,  683,  684,  685, 1120, 1121, 1122
*Elset, elset=Sec68, generate
 543,  550,    1
*Nset, nset=Sec69
  137,  138,  139,  140,  679,  686,  687,  688,  689,  690,  691,  692, 1123, 1124, 1125
*Elset, elset=Sec69, generate
 551,  558,    1
*Nset, nset=Sec70
  139,  140,  141,  142,  689,  693,  694,  695,  696,  697,  698,  699, 1126, 1127, 1128
*Elset, elset=Sec70, generate
 559,  566,    1
*Nset, nset=Sec71
  141,  142,  143,  144,  693,  700,  701,  702,  703,  704,  705,  706, 1129, 1130, 1131
*Elset, elset=Sec71, generate
 567,  574,    1
*Nset, nset=Sec72
  143,  144,  145,  146,  703,  707,  708,  709,  710,  711,  712,  713, 1132, 1133, 1134
*Elset, elset=Sec72, generate
 575,  582,    1
*Nset, nset=Sec73
  145,  146,  147,  148,  707,  714,  715,  716,  717,  718,  719,  720, 1135, 1136, 1137
*Elset, elset=Sec73, generate
 583,  590,    1
*Nset, nset=Sec74
  147,  148,  149,  150,  717,  721,  722,  723,  724,  725,  726,  727, 1138, 1139, 1140
*Elset, elset=Sec74, generate
 591,  598,    1
*Nset, nset=Sec75
  149,  150,  151,  152,  721,  728,  729,  730,  731,  732,  733,  734, 1141, 1142, 1143
*Elset, elset=Sec75, generate
 599,  606,    1
*Nset, nset=Sec76
  151,  152,  153,  154,  731,  735,  736,  737,  738,  739,  740,  741, 1144, 1145, 1146
*Elset, elset=Sec76, generate
 607,  614,    1
*Nset, nset=Sec77
  153,  154,  155,  156,  735,  742,  743,  744,  745,  746,  747,  748, 1147, 1148, 1149
*Elset, elset=Sec77, generate
 615,  622,    1
*Nset, nset=Sec78
  155,  156,  157,  158,  745,  749,  750,  751,  752,  753,  754,  755, 1150, 1151, 1152
*Elset, elset=Sec78, generate
 623,  630,    1
*Nset, nset=Sec79
  157,  158,  159,  160,  749,  756,  757,  758,  759,  760,  761,  762, 1153, 1154, 1155
*Elset, elset=Sec79, generate
 631,  638,    1
*Nset, nset=Sec80
  159,  160,  161,  162,  759,  763,  764,  765,  766,  767,  768,  769, 1156, 1157, 1158
*Elset, elset=Sec80, generate
 639,  646,    1
*Nset, nset=Sec81
  161,  162,  163,  164,  763,  770,  771,  772,  773,  774,  775,  776, 1159, 1160, 1161
*Elset, elset=Sec81, generate
 647,  654,    1
*Nset, nset=Sec82
  163,  164,  165,  166,  773,  777,  778,  779,  780,  781,  782,  783, 1162, 1163, 1164
*Elset, elset=Sec82, generate
 655,  662,    1
*Nset, nset=Sec83
  165,  166,  167,  168,  777,  784,  785,  786,  787,  788,  789,  790, 1165, 1166, 1167
*Elset, elset=Sec83, generate
 663,  670,    1
*Nset, nset=Sec84
  167,  168,  169,  170,  787,  791,  792,  793,  794,  795,  796,  797, 1168, 1169, 1170
*Elset, elset=Sec84, generate
 671,  678,    1
*Nset, nset=Sec85
  169,  170,  171,  172,  791,  798,  799,  800,  801,  802,  803,  804, 1171, 1172, 1173
*Elset, elset=Sec85, generate
 679,  686,    1
*Nset, nset=Sec86
  171,  172,  173,  174,  801,  805,  806,  807,  808,  809,  810,  811, 1174, 1175, 1176
*Elset, elset=Sec86, generate
 687,  694,    1
*Nset, nset=Sec87
  173,  174,  175,  176,  805,  812,  813,  814,  815,  816,  817,  818, 1177, 1178, 1179
*Elset, elset=Sec87, generate
 695,  702,    1
*Nset, nset=Sec88
  175,  176,  177,  178,  815,  819,  820,  821,  822,  823,  824,  825, 1180, 1181, 1182
*Elset, elset=Sec88, generate
 703,  710,    1
*Nset, nset=Sec89
  177,  178,  179,  180,  819,  826,  827,  828,  829,  830,  831,  832, 1183, 1184, 1185
*Elset, elset=Sec89, generate
 711,  718,    1
*Nset, nset=Sec90
  179,  180,  181,  182,  829,  833,  834,  835,  836,  837,  838,  839, 1186, 1187, 1188
*Elset, elset=Sec90, generate
 719,  726,    1
*Nset, nset=Sec91
  181,  182,  183,  184,  833,  840,  841,  842,  843,  844,  845,  846, 1189, 1190, 1191
*Elset, elset=Sec91, generate
 727,  734,    1
*Nset, nset=Sec92
  183,  184,  185,  186,  843,  847,  848,  849,  850,  851,  852,  853, 1192, 1193, 1194
*Elset, elset=Sec92, generate
 735,  742,    1
*Nset, nset=Sec93
  185,  186,  187,  188,  847,  854,  855,  856,  857,  858,  859,  860, 1195, 1196, 1197
*Elset, elset=Sec93, generate
 743,  750,    1
*Nset, nset=Sec94
  187,  188,  189,  190,  857,  861,  862,  863,  864,  865,  866,  867, 1198, 1199, 1200
*Elset, elset=Sec94, generate
 751,  758,    1
*Nset, nset=Sec95
  189,  190,  191,  192,  861,  868,  869,  870,  871,  872,  873,  874, 1201, 1202, 1203
*Elset, elset=Sec95, generate
 759,  766,    1
*Nset, nset=Sec96
  191,  192,  193,  194,  871,  875,  876,  877,  878,  879,  880,  881, 1204, 1205, 1206
*Elset, elset=Sec96, generate
 767,  774,    1
*Nset, nset=Sec97
  193,  194,  195,  196,  875,  882,  883,  884,  885,  886,  887,  888, 1207, 1208, 1209
*Elset, elset=Sec97, generate
 775,  782,    1
*Nset, nset=Sec98
  195,  196,  201,  202,  885,  903,  904,  905,  906,  907,  908,  909, 1216, 1217, 1218
*Elset, elset=Sec98, generate
 797,  804,    1
*Nset, nset=Sec99
  197,  198,  201,  202,  889,  903,  910,  911,  912,  913,  914,  915, 1219, 1220, 1221
*Elset, elset=Sec99, generate
 805,  812,    1
*Nset, nset=Sec100
  197,  198,  199,  200,  889,  890,  891,  892,  893,  894,  895,  896,  897,  898,  899,  900
  901,  902, 1210, 1211, 1212, 1213, 1214, 1215
*Elset, elset=Sec100, generate
 783,  796,    1
** Section: Sec1
*Solid Section, elset=Sec1, material=Mat1
,
** Section: Sec2
*Solid Section, elset=Sec2, material=Mat2
,
** Section: Sec3
*Solid Section, elset=Sec3, material=Mat3
,
** Section: Sec4
*Solid Section, elset=Sec4, material=Mat4
,
** Section: Sec5
*Solid Section, elset=Sec5, material=Mat5
,
** Section: Sec6
*Solid Section, elset=Sec6, material=Mat6
,
** Section: Sec7
*Solid Section, elset=Sec7, material=Mat7
,
** Section: Sec8
*Solid Section, elset=Sec8, material=Mat8
,
** Section: Sec9
*Solid Section, elset=Sec9, material=Mat9
,
** Section: Sec10
*Solid Section, elset=Sec10, material=Mat10
,
** Section: Sec11
*Solid Section, elset=Sec11, material=Mat11
,
** Section: Sec12
*Solid Section, elset=Sec12, material=Mat12
,
** Section: Sec13
*Solid Section, elset=Sec13, material=Mat13
,
** Section: Sec14
*Solid Section, elset=Sec14, material=Mat14
,
** Section: Sec15
*Solid Section, elset=Sec15, material=Mat15
,
** Section: Sec16
*Solid Section, elset=Sec16, material=Mat16
,
** Section: Sec17
*Solid Section, elset=Sec17, material=Mat17
,
** Section: Sec18
*Solid Section, elset=Sec18, material=Mat18
,
** Section: Sec19
*Solid Section, elset=Sec19, material=Mat19
,
** Section: Sec20
*Solid Section, elset=Sec20, material=Mat20
,
** Section: Sec21
*Solid Section, elset=Sec21, material=Mat21
,
** Section: Sec22
*Solid Section, elset=Sec22, material=Mat22
,
** Section: Sec23
*Solid Section, elset=Sec23, material=Mat23
,
** Section: Sec24
*Solid Section, elset=Sec24, material=Mat24
,
** Section: Sec25
*Solid Section, elset=Sec25, material=Mat25
,
** Section: Sec26
*Solid Section, elset=Sec26, material=Mat26
,
** Section: Sec27
*Solid Section, elset=Sec27, material=Mat27
,
** Section: Sec28
*Solid Section, elset=Sec28, material=Mat28
,
** Section: Sec29
*Solid Section, elset=Sec29, material=Mat29
,
** Section: Sec30
*Solid Section, elset=Sec30, material=Mat30
,
** Section: Sec31
*Solid Section, elset=Sec31, material=Mat31
,
** Section: Sec32
*Solid Section, elset=Sec32, material=Mat32
,
** Section: Sec33
*Solid Section, elset=Sec33, material=Mat33
,
** Section: Sec34
*Solid Section, elset=Sec34, material=Mat34
,
** Section: Sec35
*Solid Section, elset=Sec35, material=Mat35
,
** Section: Sec36
*Solid Section, elset=Sec36, material=Mat36
,
** Section: Sec37
*Solid Section, elset=Sec37, material=Mat37
,
** Section: Sec38
*Solid Section, elset=Sec38, material=Mat38
,
** Section: Sec39
*Solid Section, elset=Sec39, material=Mat39
,
** Section: Sec40
*Solid Section, elset=Sec40, material=Mat40
,
** Section: Sec41
*Solid Section, elset=Sec41, material=Mat41
,
** Section: Sec42
*Solid Section, elset=Sec42, material=Mat42
,
** Section: Sec43
*Solid Section, elset=Sec43, material=Mat43
,
** Section: Sec44
*Solid Section, elset=Sec44, material=Mat44
,
** Section: Sec45
*Solid Section, elset=Sec45, material=Mat45
,
** Section: Sec46
*Solid Section, elset=Sec46, material=Mat46
,
** Section: Sec47
*Solid Section, elset=Sec47, material=Mat47
,
** Section: Sec48
*Solid Section, elset=Sec48, material=Mat48
,
** Section: Sec49
*Solid Section, elset=Sec49, material=Mat49
,
** Section: Sec50
*Solid Section, elset=Sec50, material=Mat50
,
** Section: Sec51
*Solid Section, elset=Sec51, material=Mat51
,
** Section: Sec52
*Solid Section, elset=Sec52, material=Mat52
,
** Section: Sec53
*Solid Section, elset=Sec53, material=Mat53
,
** Section: Sec54
*Solid Section, elset=Sec54, material=Mat54
,
** Section: Sec55
*Solid Section, elset=Sec55, material=Mat55
,
** Section: Sec56
*Solid Section, elset=Sec56, material=Mat56
,
** Section: Sec57
*Solid Section, elset=Sec57, material=Mat57
,
** Section: Sec58
*Solid Section, elset=Sec58, material=Mat58
,
** Section: Sec59
*Solid Section, elset=Sec59, material=Mat59
,
** Section: Sec60
*Solid Section, elset=Sec60, material=Mat60
,
** Section: Sec61
*Solid Section, elset=Sec61, material=Mat61
,
** Section: Sec62
*Solid Section, elset=Sec62, material=Mat62
,
** Section: Sec63
*Solid Section, elset=Sec63, material=Mat63
,
** Section: Sec64
*Solid Section, elset=Sec64, material=Mat64
,
** Section: Sec65
*Solid Section, elset=Sec65, material=Mat65
,
** Section: Sec66
*Solid Section, elset=Sec66, material=Mat66
,
** Section: Sec67
*Solid Section, elset=Sec67, material=Mat67
,
** Section: Sec68
*Solid Section, elset=Sec68, material=Mat68
,
** Section: Sec69
*Solid Section, elset=Sec69, material=Mat69
,
** Section: Sec70
*Solid Section, elset=Sec70, material=Mat70
,
** Section: Sec71
*Solid Section, elset=Sec71, material=Mat71
,
** Section: Sec72
*Solid Section, elset=Sec72, material=Mat72
,
** Section: Sec73
*Solid Section, elset=Sec73, material=Mat73
,
** Section: Sec74
*Solid Section, elset=Sec74, material=Mat74
,
** Section: Sec75
*Solid Section, elset=Sec75, material=Mat75
,
** Section: Sec76
*Solid Section, elset=Sec76, material=Mat76
,
** Section: Sec77
*Solid Section, elset=Sec77, material=Mat77
,
** Section: Sec78
*Solid Section, elset=Sec78, material=Mat78
,
** Section: Sec79
*Solid Section, elset=Sec79, material=Mat79
,
** Section: Sec80
*Solid Section, elset=Sec80, material=Mat80
,
** Section: Sec81
*Solid Section, elset=Sec81, material=Mat81
,
** Section: Sec82
*Solid Section, elset=Sec82, material=Mat82
,
** Section: Sec83
*Solid Section, elset=Sec83, material=Mat83
,
** Section: Sec84
*Solid Section, elset=Sec84, material=Mat84
,
** Section: Sec85
*Solid Section, elset=Sec85, material=Mat85
,
** Section: Sec86
*Solid Section, elset=Sec86, material=Mat86
,
** Section: Sec87
*Solid Section, elset=Sec87, material=Mat87
,
** Section: Sec88
*Solid Section, elset=Sec88, material=Mat88
,
** Section: Sec89
*Solid Section, elset=Sec89, material=Mat89
,
** Section: Sec90
*Solid Section, elset=Sec90, material=Mat90
,
** Section: Sec91
*Solid Section, elset=Sec91, material=Mat91
,
** Section: Sec92
*Solid Section, elset=Sec92, material=Mat92
,
** Section: Sec93
*Solid Section, elset=Sec93, material=Mat93
,
** Section: Sec94
*Solid Section, elset=Sec94, material=Mat94
,
** Section: Sec95
*Solid Section, elset=Sec95, material=Mat95
,
** Section: Sec96
*Solid Section, elset=Sec96, material=Mat96
,
** Section: Sec97
*Solid Section, elset=Sec97, material=Mat97
,
** Section: Sec100
*Solid Section, elset=Sec100, material=Mat100
,
** Section: Sec98
*Solid Section, elset=Sec98, material=Mat98
,
** Section: Sec99
*Solid Section, elset=Sec99, material=Mat99
,
*End Part
**  
**
** ASSEMBLY
**
*Assembly, name=Assembly
**  
*Instance, name=Disk-Universal-1, part=Disk-Universal
*End Instance
**  
*End Assembly
** 
** MATERIALS
** 
*Material, name=Mat1
*Conductivity
 21.9,
*Density
8000.,
*Elastic
 2.1e+11, 0.3
*Expansion
 1.4e-05,
*Plastic
 8e+08,0.
*Specific Heat
436.,
*Material, name=Mat2
*Conductivity
 21.9,
*Density
8000.,
*Elastic
 2.1e+11, 0.3
*Expansion
 1.4e-05,
*Plastic
 8e+08,0.
*Specific Heat
436.,
*Material, name=Mat3
*Conductivity
 21.9,
*Density
8000.,
*Elastic
 2.1e+11, 0.3
*Expansion
 1.4e-05,
*Plastic
 8e+08,0.
*Specific Heat
436.,
*Material, name=Mat4
*Conductivity
 21.9,
*Density
8000.,
*Elastic
 2.1e+11, 0.3
*Expansion
 1.4e-05,
*Plastic
 8e+08,0.
*Specific Heat
436.,
*Material, name=Mat5
*Conductivity
 21.9,
*Density
8000.,
*Elastic
 2.1e+11, 0.3
*Expansion
 1.4e-05,
*Plastic
 8e+08,0.
*Specific Heat
436.,
*Material, name=Mat6
*Conductivity
 21.9,
*Density
8000.,
*Elastic
 2.1e+11, 0.3
*Expansion
 1.4e-05,
*Plastic
 8e+08,0.
*Specific Heat
436.,
*Material, name=Mat7
*Conductivity
 21.9,
*Density
8000.,
*Elastic
 2.1e+11, 0.3
*Expansion
 1.4e-05,
*Plastic
 8e+08,0.
*Specific Heat
436.,
*Material, name=Mat8
*Conductivity
 21.9,
*Density
8000.,
*Elastic
 2.1e+11, 0.3
*Expansion
 1.4e-05,
*Plastic
 8e+08,0.
*Specific Heat
436.,
*Material, name=Mat9
*Conductivity
 21.9,
*Density
8000.,
*Elastic
 2.1e+11, 0.3
*Expansion
 1.4e-05,
*Plastic
 8e+08,0.
*Specific Heat
436.,
*Material, name=Mat10
*Conductivity
 21.9,
*Density
8000.,
*Elastic
 2.1e+11, 0.3
*Expansion
 1.4e-05,
*Plastic
 8e+08,0.
*Specific Heat
436.,
*Material, name=Mat11
*Conductivity
 21.9,
*Density
8000.,
*Elastic
 2.1e+11, 0.3
*Expansion
 1.4e-05,
*Plastic
 8e+08,0.
*Specific Heat
436.,
*Material, name=Mat12
*Conductivity
 21.9,
*Density
8000.,
*Elastic
 2.1e+11, 0.3
*Expansion
 1.4e-05,
*Plastic
 8e+08,0.
*Specific Heat
436.,
*Material, name=Mat13
*Conductivity
 21.9,
*Density
8000.,
*Elastic
 2.1e+11, 0.3
*Expansion
 1.4e-05,
*Plastic
 8e+08,0.
*Specific Heat
436.,
*Material, name=Mat14
*Conductivity
 21.9,
*Density
8000.,
*Elastic
 2.1e+11, 0.3
*Expansion
 1.4e-05,
*Plastic
 8e+08,0.
*Specific Heat
436.,
*Material, name=Mat15
*Conductivity
 21.9,
*Density
8000.,
*Elastic
 2.1e+11, 0.3
*Expansion
 1.4e-05,
*Plastic
 8e+08,0.
*Specific Heat
436.,
*Material, name=Mat16
*Conductivity
 21.9,
*Density
8000.,
*Elastic
 2.1e+11, 0.3
*Expansion
 1.4e-05,
*Plastic
 8e+08,0.
*Specific Heat
436.,
*Material, name=Mat17
*Conductivity
 21.9,
*Density
8000.,
*Elastic
 2.1e+11, 0.3
*Expansion
 1.4e-05,
*Plastic
 8e+08,0.
*Specific Heat
436.,
*Material, name=Mat18
*Conductivity
 21.9,
*Density
8000.,
*Elastic
 2.1e+11, 0.3
*Expansion
 1.4e-05,
*Plastic
 8e+08,0.
*Specific Heat
436.,
*Material, name=Mat19
*Conductivity
 21.9,
*Density
8000.,
*Elastic
 2.1e+11, 0.3
*Expansion
 1.4e-05,
*Plastic
 8e+08,0.
*Specific Heat
436.,
*Material, name=Mat20
*Conductivity
 21.9,
*Density
8000.,
*Elastic
 2.1e+11, 0.3
*Expansion
 1.4e-05,
*Plastic
 8e+08,0.
*Specific Heat
436.,
*Material, name=Mat21
*Conductivity
 21.9,
*Density
8000.,
*Elastic
 2.1e+11, 0.3
*Expansion
 1.4e-05,
*Plastic
 8e+08,0.
*Specific Heat
436.,
*Material, name=Mat22
*Conductivity
 21.9,
*Density
8000.,
*Elastic
 2.1e+11, 0.3
*Expansion
 1.4e-05,
*Plastic
 8e+08,0.
*Specific Heat
436.,
*Material, name=Mat23
*Conductivity
 21.9,
*Density
8000.,
*Elastic
 2.1e+11, 0.3
*Expansion
 1.4e-05,
*Plastic
 8e+08,0.
*Specific Heat
436.,
*Material, name=Mat24
*Conductivity
 21.9,
*Density
8000.,
*Elastic
 2.1e+11, 0.3
*Expansion
 1.4e-05,
*Plastic
 8e+08,0.
*Specific Heat
436.,
*Material, name=Mat25
*Conductivity
 21.9,
*Density
8000.,
*Elastic
 2.1e+11, 0.3
*Expansion
 1.4e-05,
*Plastic
 8e+08,0.
*Specific Heat
436.,
*Material, name=Mat26
*Conductivity
 21.9,
*Density
8000.,
*Elastic
 2.1e+11, 0.3
*Expansion
 1.4e-05,
*Plastic
 8e+08,0.
*Specific Heat
436.,
*Material, name=Mat27
*Conductivity
 21.9,
*Density
8000.,
*Elastic
 2.1e+11, 0.3
*Expansion
 1.4e-05,
*Plastic
 8e+08,0.
*Specific Heat
436.,
*Material, name=Mat28
*Conductivity
 21.9,
*Density
8000.,
*Elastic
 2.1e+11, 0.3
*Expansion
 1.4e-05,
*Plastic
 8e+08,0.
*Specific Heat
436.,
*Material, name=Mat29
*Conductivity
 21.9,
*Density
8000.,
*Elastic
 2.1e+11, 0.3
*Expansion
 1.4e-05,
*Plastic
 8e+08,0.
*Specific Heat
436.,
*Material, name=Mat30
*Conductivity
 21.9,
*Density
8000.,
*Elastic
 2.1e+11, 0.3
*Expansion
 1.4e-05,
*Plastic
 8e+08,0.
*Specific Heat
436.,
*Material, name=Mat31
*Conductivity
 21.9,
*Density
8000.,
*Elastic
 2.1e+11, 0.3
*Expansion
 1.4e-05,
*Plastic
 8e+08,0.
*Specific Heat
436.,
*Material, name=Mat32
*Conductivity
 21.9,
*Density
8000.,
*Elastic
 2.1e+11, 0.3
*Expansion
 1.4e-05,
*Plastic
 8e+08,0.
*Specific Heat
436.,
*Material, name=Mat33
*Conductivity
 21.9,
*Density
8000.,
*Elastic
 2.1e+11, 0.3
*Expansion
 1.4e-05,
*Plastic
 8e+08,0.
*Specific Heat
436.,
*Material, name=Mat34
*Conductivity
 21.9,
*Density
8000.,
*Elastic
 2.1e+11, 0.3
*Expansion
 1.4e-05,
*Plastic
 8e+08,0.
*Specific Heat
436.,
*Material, name=Mat35
*Conductivity
 21.9,
*Density
8000.,
*Elastic
 2.1e+11, 0.3
*Expansion
 1.4e-05,
*Plastic
 8e+08,0.
*Specific Heat
436.,
*Material, name=Mat36
*Conductivity
 21.9,
*Density
8000.,
*Elastic
 2.1e+11, 0.3
*Expansion
 1.4e-05,
*Plastic
 8e+08,0.
*Specific Heat
436.,
*Material, name=Mat37
*Conductivity
 21.9,
*Density
8000.,
*Elastic
 2.1e+11, 0.3
*Expansion
 1.4e-05,
*Plastic
 8e+08,0.
*Specific Heat
436.,
*Material, name=Mat38
*Conductivity
 21.9,
*Density
8000.,
*Elastic
 2.1e+11, 0.3
*Expansion
 1.4e-05,
*Plastic
 8e+08,0.
*Specific Heat
436.,
*Material, name=Mat39
*Conductivity
 21.9,
*Density
8000.,
*Elastic
 2.1e+11, 0.3
*Expansion
 1.4e-05,
*Plastic
 8e+08,0.
*Specific Heat
436.,
*Material, name=Mat40
*Conductivity
 21.9,
*Density
8000.,
*Elastic
 2.1e+11, 0.3
*Expansion
 1.4e-05,
*Plastic
 8e+08,0.
*Specific Heat
436.,
*Material, name=Mat41
*Conductivity
 21.9,
*Density
8000.,
*Elastic
 2.1e+11, 0.3
*Expansion
 1.4e-05,
*Plastic
 8e+08,0.
*Specific Heat
436.,
*Material, name=Mat42
*Conductivity
 21.9,
*Density
8000.,
*Elastic
 2.1e+11, 0.3
*Expansion
 1.4e-05,
*Plastic
 8e+08,0.
*Specific Heat
436.,
*Material, name=Mat43
*Conductivity
 21.9,
*Density
8000.,
*Elastic
 2.1e+11, 0.3
*Expansion
 1.4e-05,
*Plastic
 8e+08,0.
*Specific Heat
436.,
*Material, name=Mat44
*Conductivity
 21.9,
*Density
8000.,
*Elastic
 2.1e+11, 0.3
*Expansion
 1.4e-05,
*Plastic
 8e+08,0.
*Specific Heat
436.,
*Material, name=Mat45
*Conductivity
 21.9,
*Density
8000.,
*Elastic
 2.1e+11, 0.3
*Expansion
 1.4e-05,
*Plastic
 8e+08,0.
*Specific Heat
436.,
*Material, name=Mat46
*Conductivity
 21.9,
*Density
8000.,
*Elastic
 2.1e+11, 0.3
*Expansion
 1.4e-05,
*Plastic
 8e+08,0.
*Specific Heat
436.,
*Material, name=Mat47
*Conductivity
 21.9,
*Density
8000.,
*Elastic
 2.1e+11, 0.3
*Expansion
 1.4e-05,
*Plastic
 8e+08,0.
*Specific Heat
436.,
*Material, name=Mat48
*Conductivity
 21.9,
*Density
8000.,
*Elastic
 2.1e+11, 0.3
*Expansion
 1.4e-05,
*Plastic
 8e+08,0.
*Specific Heat
436.,
*Material, name=Mat49
*Conductivity
 21.9,
*Density
8000.,
*Elastic
 2.1e+11, 0.3
*Expansion
 1.4e-05,
*Plastic
 8e+08,0.
*Specific Heat
436.,
*Material, name=Mat50
*Conductivity
 21.9,
*Density
8000.,
*Elastic
 2.1e+11, 0.3
*Expansion
 1.4e-05,
*Plastic
 8e+08,0.
*Specific Heat
436.,
*Material, name=Mat51
*Conductivity
 21.9,
*Density
8000.,
*Elastic
 2.1e+11, 0.3
*Expansion
 1.4e-05,
*Plastic
 8e+08,0.
*Specific Heat
436.,
*Material, name=Mat52
*Conductivity
 21.9,
*Density
8000.,
*Elastic
 2.1e+11, 0.3
*Expansion
 1.4e-05,
*Plastic
 8e+08,0.
*Specific Heat
436.,
*Material, name=Mat53
*Conductivity
 21.9,
*Density
8000.,
*Elastic
 2.1e+11, 0.3
*Expansion
 1.4e-05,
*Plastic
 8e+08,0.
*Specific Heat
436.,
*Material, name=Mat54
*Conductivity
 21.9,
*Density
8000.,
*Elastic
 2.1e+11, 0.3
*Expansion
 1.4e-05,
*Plastic
 8e+08,0.
*Specific Heat
436.,
*Material, name=Mat55
*Conductivity
 21.9,
*Density
8000.,
*Elastic
 2.1e+11, 0.3
*Expansion
 1.4e-05,
*Plastic
 8e+08,0.
*Specific Heat
436.,
*Material, name=Mat56
*Conductivity
 21.9,
*Density
8000.,
*Elastic
 2.1e+11, 0.3
*Expansion
 1.4e-05,
*Plastic
 8e+08,0.
*Specific Heat
436.,
*Material, name=Mat57
*Conductivity
 21.9,
*Density
8000.,
*Elastic
 2.1e+11, 0.3
*Expansion
 1.4e-05,
*Plastic
 8e+08,0.
*Specific Heat
436.,
*Material, name=Mat58
*Conductivity
 21.9,
*Density
8000.,
*Elastic
 2.1e+11, 0.3
*Expansion
 1.4e-05,
*Plastic
 8e+08,0.
*Specific Heat
436.,
*Material, name=Mat59
*Conductivity
 21.9,
*Density
8000.,
*Elastic
 2.1e+11, 0.3
*Expansion
 1.4e-05,
*Plastic
 8e+08,0.
*Specific Heat
436.,
*Material, name=Mat60
*Conductivity
 21.9,
*Density
8000.,
*Elastic
 2.1e+11, 0.3
*Expansion
 1.4e-05,
*Plastic
 8e+08,0.
*Specific Heat
436.,
*Material, name=Mat61
*Conductivity
 21.9,
*Density
8000.,
*Elastic
 2.1e+11, 0.3
*Expansion
 1.4e-05,
*Plastic
 8e+08,0.
*Specific Heat
436.,
*Material, name=Mat62
*Conductivity
 21.9,
*Density
8000.,
*Elastic
 2.1e+11, 0.3
*Expansion
 1.4e-05,
*Plastic
 8e+08,0.
*Specific Heat
436.,
*Material, name=Mat63
*Conductivity
 21.9,
*Density
8000.,
*Elastic
 2.1e+11, 0.3
*Expansion
 1.4e-05,
*Plastic
 8e+08,0.
*Specific Heat
436.,
*Material, name=Mat64
*Conductivity
 21.9,
*Density
8000.,
*Elastic
 2.1e+11, 0.3
*Expansion
 1.4e-05,
*Plastic
 8e+08,0.
*Specific Heat
436.,
*Material, name=Mat65
*Conductivity
 21.9,
*Density
8000.,
*Elastic
 2.1e+11, 0.3
*Expansion
 1.4e-05,
*Plastic
 8e+08,0.
*Specific Heat
436.,
*Material, name=Mat66
*Conductivity
 21.9,
*Density
8000.,
*Elastic
 2.1e+11, 0.3
*Expansion
 1.4e-05,
*Plastic
 8e+08,0.
*Specific Heat
436.,
*Material, name=Mat67
*Conductivity
 21.9,
*Density
8000.,
*Elastic
 2.1e+11, 0.3
*Expansion
 1.4e-05,
*Plastic
 8e+08,0.
*Specific Heat
436.,
*Material, name=Mat68
*Conductivity
 21.9,
*Density
8000.,
*Elastic
 2.1e+11, 0.3
*Expansion
 1.4e-05,
*Plastic
 8e+08,0.
*Specific Heat
436.,
*Material, name=Mat69
*Conductivity
 21.9,
*Density
8000.,
*Elastic
 2.1e+11, 0.3
*Expansion
 1.4e-05,
*Plastic
 8e+08,0.
*Specific Heat
436.,
*Material, name=Mat70
*Conductivity
 21.9,
*Density
8000.,
*Elastic
 2.1e+11, 0.3
*Expansion
 1.4e-05,
*Plastic
 8e+08,0.
*Specific Heat
436.,
*Material, name=Mat71
*Conductivity
 21.9,
*Density
8000.,
*Elastic
 2.1e+11, 0.3
*Expansion
 1.4e-05,
*Plastic
 8e+08,0.
*Specific Heat
436.,
*Material, name=Mat72
*Conductivity
 21.9,
*Density
8000.,
*Elastic
 2.1e+11, 0.3
*Expansion
 1.4e-05,
*Plastic
 8e+08,0.
*Specific Heat
436.,
*Material, name=Mat73
*Conductivity
 21.9,
*Density
8000.,
*Elastic
 2.1e+11, 0.3
*Expansion
 1.4e-05,
*Plastic
 8e+08,0.
*Specific Heat
436.,
*Material, name=Mat74
*Conductivity
 21.9,
*Density
8000.,
*Elastic
 2.1e+11, 0.3
*Expansion
 1.4e-05,
*Plastic
 8e+08,0.
*Specific Heat
436.,
*Material, name=Mat75
*Conductivity
 21.9,
*Density
8000.,
*Elastic
 2.1e+11, 0.3
*Expansion
 1.4e-05,
*Plastic
 8e+08,0.
*Specific Heat
436.,
*Material, name=Mat76
*Conductivity
 21.9,
*Density
8000.,
*Elastic
 2.1e+11, 0.3
*Expansion
 1.4e-05,
*Plastic
 8e+08,0.
*Specific Heat
436.,
*Material, name=Mat77
*Conductivity
 21.9,
*Density
8000.,
*Elastic
 2.1e+11, 0.3
*Expansion
 1.4e-05,
*Plastic
 8e+08,0.
*Specific Heat
436.,
*Material, name=Mat78
*Conductivity
 21.9,
*Density
8000.,
*Elastic
 2.1e+11, 0.3
*Expansion
 1.4e-05,
*Plastic
 8e+08,0.
*Specific Heat
436.,
*Material, name=Mat79
*Conductivity
 21.9,
*Density
8000.,
*Elastic
 2.1e+11, 0.3
*Expansion
 1.4e-05,
*Plastic
 8e+08,0.
*Specific Heat
436.,
*Material, name=Mat80
*Conductivity
 21.9,
*Density
8000.,
*Elastic
 2.1e+11, 0.3
*Expansion
 1.4e-05,
*Plastic
 8e+08,0.
*Specific Heat
436.,
*Material, name=Mat81
*Conductivity
 21.9,
*Density
8000.,
*Elastic
 2.1e+11, 0.3
*Expansion
 1.4e-05,
*Plastic
 8e+08,0.
*Specific Heat
436.,
*Material, name=Mat82
*Conductivity
 21.9,
*Density
8000.,
*Elastic
 2.1e+11, 0.3
*Expansion
 1.4e-05,
*Plastic
 8e+08,0.
*Specific Heat
436.,
*Material, name=Mat83
*Conductivity
 21.9,
*Density
8000.,
*Elastic
 2.1e+11, 0.3
*Expansion
 1.4e-05,
*Plastic
 8e+08,0.
*Specific Heat
436.,
*Material, name=Mat84
*Conductivity
 21.9,
*Density
8000.,
*Elastic
 2.1e+11, 0.3
*Expansion
 1.4e-05,
*Plastic
 8e+08,0.
*Specific Heat
436.,
*Material, name=Mat85
*Conductivity
 21.9,
*Density
8000.,
*Elastic
 2.1e+11, 0.3
*Expansion
 1.4e-05,
*Plastic
 8e+08,0.
*Specific Heat
436.,
*Material, name=Mat86
*Conductivity
 21.9,
*Density
8000.,
*Elastic
 2.1e+11, 0.3
*Expansion
 1.4e-05,
*Plastic
 8e+08,0.
*Specific Heat
436.,
*Material, name=Mat87
*Conductivity
 21.9,
*Density
8000.,
*Elastic
 2.1e+11, 0.3
*Expansion
 1.4e-05,
*Plastic
 8e+08,0.
*Specific Heat
436.,
*Material, name=Mat88
*Conductivity
 21.9,
*Density
8000.,
*Elastic
 2.1e+11, 0.3
*Expansion
 1.4e-05,
*Plastic
 8e+08,0.
*Specific Heat
436.,
*Material, name=Mat89
*Conductivity
 21.9,
*Density
8000.,
*Elastic
 2.1e+11, 0.3
*Expansion
 1.4e-05,
*Plastic
 8e+08,0.
*Specific Heat
436.,
*Material, name=Mat90
*Conductivity
 21.9,
*Density
8000.,
*Elastic
 2.1e+11, 0.3
*Expansion
 1.4e-05,
*Plastic
 8e+08,0.
*Specific Heat
436.,
*Material, name=Mat91
*Conductivity
 21.9,
*Density
8000.,
*Elastic
 2.1e+11, 0.3
*Expansion
 1.4e-05,
*Plastic
 8e+08,0.
*Specific Heat
436.,
*Material, name=Mat92
*Conductivity
 21.9,
*Density
8000.,
*Elastic
 2.1e+11, 0.3
*Expansion
 1.4e-05,
*Plastic
 8e+08,0.
*Specific Heat
436.,
*Material, name=Mat93
*Conductivity
 21.9,
*Density
8000.,
*Elastic
 2.1e+11, 0.3
*Expansion
 1.4e-05,
*Plastic
 8e+08,0.
*Specific Heat
436.,
*Material, name=Mat94
*Conductivity
 21.9,
*Density
8000.,
*Elastic
 2.1e+11, 0.3
*Expansion
 1.4e-05,
*Plastic
 8e+08,0.
*Specific Heat
436.,
*Material, name=Mat95
*Conductivity
 21.9,
*Density
8000.,
*Elastic
 2.1e+11, 0.3
*Expansion
 1.4e-05,
*Plastic
 8e+08,0.
*Specific Heat
436.,
*Material, name=Mat96
*Conductivity
 21.9,
*Density
8000.,
*Elastic
 2.1e+11, 0.3
*Expansion
 1.4e-05,
*Plastic
 8e+08,0.
*Specific Heat
436.,
*Material, name=Mat97
*Conductivity
 21.9,
*Density
8000.,
*Elastic
 2.1e+11, 0.3
*Expansion
 1.4e-05,
*Plastic
 8e+08,0.
*Specific Heat
436.,
*Material, name=Mat98
*Conductivity
 21.9,
*Density
8000.,
*Elastic
 2.1e+11, 0.3
*Expansion
 1.4e-05,
*Plastic
 8e+08,0.
*Specific Heat
436.,
*Material, name=Mat99
*Conductivity
 21.9,
*Density
8000.,
*Elastic
 2.1e+11, 0.3
*Expansion
 1.4e-05,
*Plastic
 8e+08,0.
*Specific Heat
436.,
*Material, name=Mat100
*Conductivity
 21.9,
*Density
8000.,
*Elastic
 2.1e+11, 0.3
*Expansion
 1.4e-05,
*Plastic
 8e+08,0.
*Specific Heat
436.,
** 
** BOUNDARY CONDITIONS
** 
** Name: Left_radial Type: Displacement/Rotation
*Boundary
Disk-Universal-1.Left, 1, 1
Disk-Universal-1.Left, 6, 6
** Name: Y_symm Type: Symmetry/Antisymmetry/Encastre
*Boundary
Disk-Universal-1.Bottom, YSYMM
** ----------------------------------------------------------------
** 
** STEP: Step-1
** 
*Step, name=Step-1, nlgeom=YES
*Static
1e-5, 1., 1e-05, 0.01
** 
** LOADS
** 
** Name: Centrifugal   Type: Rotational body force
*Dload
Disk-Universal-1.All, CENTRIF, 1.0e+08,0.,0.,0.,0.0,1.0,0.0
** 
** OUTPUT REQUESTS
** 
*Restart, write, frequency=0
** 
** FIELD OUTPUT: F-Output-1
** 
*Output, field, variable=PRESELECT
** 
** HISTORY OUTPUT: H-Output-1
** 
*Output, history, variable=PRESELECT
*End Step
